<?xml version="1.0" encoding="UTF-8"?>
<configuration xmlns:xsi="http://www.w3.org/2001/XMLSchema-instance" xsi:noNamespaceSchemaLocation="http://sumo.dlr.de/xsd/sumoConfiguration.xsd">
    <input>
        <net-file value="FHWM_SUMO.net.xml"/>
        <route-files value="FHWM_SUMO.rou.xml"/>
        <additional-files value=""/>
    </input>

    <time>
        <step-length value="0.1"/>
    </time>

    <gui-settings-file value="viewsettings.xml"/>
    <start value="true"/>
</configuration>
