<?xml version='1.0' encoding='UTF-8'?>
<net xmlns:xsi="http://www.w3.org/2001/XMLSchema-instance" version="1.20" junctionCornerDetail="5" rectangularLaneCut="true" limitTurnSpeed="5.50" avoidOverlap="0" xsi:noNamespaceSchemaLocation="http://sumo.dlr.de/xsd/net_file.xsd">

    <location netOffset="267.04,262.04" convBoundary="0.03,0.00,528.24,502.81" origBoundary="0.000000,0.000000,0.000000,0.000000" projParameter="+proj=tmerc +lat_0=34.1375 +lon_0=-118.3625 +k=1 +x_0=0 +y_0=0 +datum=WGS84 +units=m +vunits=m +no_defs" />

    <type id="driving" priority="1" speed="13.89" disallow="pedestrian tram rail_urban rail rail_electric rail_fast ship container cable_car subway aircraft wheelchair scooter drone" width="3.65" />

    <edge id=":13.10_0" function="internal">
        <lane id=":13.10_0_0" index="0" disallow="pedestrian tram rail_urban rail rail_electric rail_fast ship container cable_car subway aircraft wheelchair scooter drone" speed="17.88" length="2.35" width="4.02" shape="408.79,17.94,4.18 408.40,17.40,4.17 408.10,17.06,4.16 407.79,16.73,4.15 407.38,16.21,4.14" />
        <lane id=":13.10_0_1" index="1" disallow="pedestrian tram rail_urban rail rail_electric rail_fast ship container cable_car subway aircraft wheelchair scooter drone" speed="17.88" length="2.35" width="4.17" shape="412.11,15.70,4.18 410.71,13.81,4.14" />
        <lane id=":13.10_0_2" index="2" disallow="pedestrian tram rail_urban rail rail_electric rail_fast ship container cable_car subway aircraft wheelchair scooter drone" speed="17.88" length="2.35" width="4.66" shape="415.71,13.27,4.18 414.29,11.23,4.14" />
    </edge>
    <edge id=":14.0_0" function="internal">
        <lane id=":14.0_0_0" index="0" disallow="pedestrian tram rail_urban rail rail_electric rail_fast ship container cable_car subway aircraft wheelchair scooter drone" speed="17.88" length="0.12" width="3.50" shape="45.65,413.24,-2.51 45.77,413.21,-2.50" />
    </edge>
    <edge id=":17.14_0" function="internal">
        <lane id=":17.14_0_0" index="0" disallow="pedestrian tram rail_urban rail rail_electric rail_fast ship container cable_car subway aircraft wheelchair scooter drone" speed="17.88" length="0.10" width="3.50" shape="45.85,413.19,-2.50 45.93,413.17,-2.50" />
    </edge>
    <edge id=":18_0" function="internal">
        <lane id=":18_0_0" index="0" disallow="pedestrian tram rail_urban rail rail_electric rail_fast ship container cable_car subway aircraft wheelchair scooter drone" speed="16.77" length="44.27" width="3.50" shape="99.74,374.19,-0.52 132.63,345.47,0.04" />
        <lane id=":18_0_1" index="1" disallow="pedestrian tram rail_urban rail rail_electric rail_fast ship container cable_car subway aircraft wheelchair scooter drone" speed="16.77" length="44.27" width="3.50" shape="99.74,374.19,-0.52 134.95,348.09,0.04" />
        <lane id=":18_0_2" index="2" disallow="pedestrian tram rail_urban rail rail_electric rail_fast ship container cable_car subway aircraft wheelchair scooter drone" speed="16.77" length="44.27" width="3.50" shape="99.74,374.19,-0.52 104.90,371.23,-0.45 113.72,366.74,-0.32 124.94,360.11,-0.16 137.26,350.72,0.04" />
        <lane id=":18_0_3" index="3" disallow="pedestrian tram rail_urban rail rail_electric rail_fast ship container cable_car subway aircraft wheelchair scooter drone" speed="16.77" length="44.27" width="3.50" shape="99.74,374.19,-0.52 105.22,371.68,-0.45 114.78,368.14,-0.32 126.78,362.42,-0.15 139.57,353.35,0.04" />
    </edge>
    <edge id=":18_4" function="internal">
        <lane id=":18_4_0" index="0" disallow="pedestrian tram rail_urban rail rail_electric rail_fast ship container cable_car subway aircraft wheelchair scooter drone" speed="17.88" length="43.86" width="3.50" shape="103.80,378.85,-0.89 134.95,348.09,0.04" />
        <lane id=":18_4_1" index="1" disallow="pedestrian tram rail_urban rail rail_electric rail_fast ship container cable_car subway aircraft wheelchair scooter drone" speed="17.88" length="43.86" width="3.50" shape="106.09,381.50,-0.89 137.26,350.72,0.04" />
        <lane id=":18_4_2" index="2" disallow="pedestrian tram rail_urban rail rail_electric rail_fast ship container cable_car subway aircraft wheelchair scooter drone" speed="17.88" length="43.86" width="3.50" shape="108.37,384.15,-0.89 139.57,353.35,0.04" />
        <lane id=":18_4_3" index="3" disallow="pedestrian tram rail_urban rail rail_electric rail_fast ship container cable_car subway aircraft wheelchair scooter drone" speed="17.88" length="43.86" width="3.50" shape="110.65,386.80,-0.89 141.89,355.97,0.04" />
        <lane id=":18_4_4" index="4" disallow="pedestrian tram rail_urban rail rail_electric rail_fast ship container cable_car subway aircraft wheelchair scooter drone" speed="17.88" length="43.86" width="3.50" shape="112.94,389.45,-0.89 144.20,358.60,0.04" />
    </edge>
    <edge id=":26_0" function="internal">
        <lane id=":26_0_0" index="0" disallow="pedestrian tram rail_urban rail rail_electric rail_fast ship container cable_car subway aircraft wheelchair scooter drone" speed="17.88" length="28.95" width="3.50" shape="289.06,207.16,4.37 311.55,188.93,4.59" />
    </edge>
    <edge id=":26_1" function="internal">
        <lane id=":26_1_0" index="0" disallow="pedestrian tram rail_urban rail rail_electric rail_fast ship container cable_car subway aircraft wheelchair scooter drone" speed="17.88" length="30.28" width="3.50" shape="291.34,209.82,4.37 315.05,190.93,4.59" />
        <lane id=":26_1_1" index="1" disallow="pedestrian tram rail_urban rail rail_electric rail_fast ship container cable_car subway aircraft wheelchair scooter drone" speed="17.88" length="30.28" width="3.50" shape="293.62,212.48,4.37 317.32,193.60,4.59" />
        <lane id=":26_1_2" index="2" disallow="pedestrian tram rail_urban rail rail_electric rail_fast ship container cable_car subway aircraft wheelchair scooter drone" speed="17.88" length="30.28" width="3.50" shape="295.90,215.14,4.37 319.58,196.27,4.59" />
        <lane id=":26_1_3" index="3" disallow="pedestrian tram rail_urban rail rail_electric rail_fast ship container cable_car subway aircraft wheelchair scooter drone" speed="17.88" length="30.28" width="3.50" shape="298.17,217.79,4.37 321.85,198.94,4.59" />
        <lane id=":26_1_4" index="4" disallow="pedestrian tram rail_urban rail rail_electric rail_fast ship container cable_car subway aircraft wheelchair scooter drone" speed="17.88" length="30.28" width="3.50" shape="300.45,220.45,4.37 324.11,201.60,4.59" />
    </edge>
    <edge id=":3.13_0" function="internal">
        <lane id=":3.13_0_0" index="0" disallow="pedestrian tram rail_urban rail rail_electric rail_fast ship container cable_car subway aircraft wheelchair scooter drone" speed="17.88" length="3.00" width="4.03" shape="402.20,9.53,4.01 400.27,7.27,3.96" />
        <lane id=":3.13_0_1" index="1" disallow="pedestrian tram rail_urban rail rail_electric rail_fast ship container cable_car subway aircraft wheelchair scooter drone" speed="17.88" length="3.00" width="4.18" shape="405.34,6.90,4.01 403.40,4.61,3.96" />
        <lane id=":3.13_0_2" index="2" disallow="pedestrian tram rail_urban rail rail_electric rail_fast ship container cable_car subway aircraft wheelchair scooter drone" speed="17.88" length="3.00" width="4.66" shape="408.72,4.06,4.00 406.77,1.75,3.96" />
    </edge>
    <edge id=":34_0" function="internal">
        <lane id=":34_0_0" index="0" disallow="pedestrian tram rail_urban rail rail_electric rail_fast ship container cable_car subway aircraft wheelchair scooter drone" speed="17.88" length="37.04" width="3.91" shape="391.49,105.67,5.35 394.78,100.97,5.33 399.22,93.15,5.29 404.44,83.61,5.24 410.12,73.68,5.19" />
    </edge>
    <edge id=":4.0_0" function="internal">
        <lane id=":4.0_0_0" index="0" disallow="pedestrian tram rail_urban rail rail_electric rail_fast ship container cable_car subway aircraft wheelchair scooter drone" speed="17.88" length="2.98" width="3.50" shape="21.49,407.77,-3.91 22.12,408.39,-3.88 22.56,408.81,-3.85 23.03,409.19,-3.82 23.74,409.71,-3.79" />
    </edge>
    <edge id=":5.10_0" function="internal">
        <lane id=":5.10_0_0" index="0" disallow="pedestrian tram rail_urban rail rail_electric rail_fast ship container cable_car subway aircraft wheelchair scooter drone" speed="17.88" length="2.59" width="3.93" shape="410.35,20.18,4.23 408.90,18.10,4.18" />
        <lane id=":5.10_0_1" index="1" disallow="pedestrian tram rail_urban rail rail_electric rail_fast ship container cable_car subway aircraft wheelchair scooter drone" speed="17.88" length="2.59" width="4.08" shape="413.68,18.00,4.23 412.22,15.86,4.18" />
        <lane id=":5.10_0_2" index="2" disallow="pedestrian tram rail_urban rail rail_electric rail_fast ship container cable_car subway aircraft wheelchair scooter drone" speed="17.88" length="2.59" width="4.62" shape="417.30,15.63,4.23 415.83,13.43,4.18" />
    </edge>
    <edge id=":6.16_0" function="internal">
        <lane id=":6.16_0_0" index="0" disallow="pedestrian tram rail_urban rail rail_electric rail_fast ship container cable_car subway aircraft wheelchair scooter drone" speed="17.88" length="3.72" width="7.91" shape="335.20,164.82,4.74 335.76,161.14,4.76" />
    </edge>
    <edge id=":9.11_0" function="internal">
        <lane id=":9.11_0_0" index="0" disallow="pedestrian tram rail_urban rail rail_electric rail_fast ship container cable_car subway aircraft wheelchair scooter drone" speed="16.77" length="0.30" width="3.50" shape="77.56,392.46,-1.53 77.79,392.27,-1.53" />
    </edge>
    <edge id=":9.17_0" function="internal">
        <lane id=":9.17_0_0" index="0" disallow="pedestrian tram rail_urban rail rail_electric rail_fast ship container cable_car subway aircraft wheelchair scooter drone" speed="17.88" length="0.11" width="3.50" shape="49.64,411.89,-2.41 49.74,411.84,-2.41" />
    </edge>

    <edge id="-0" from="4.0" to="14.0" priority="1" type="driving" shape="21.55,410.21,-3.86 21.68,410.32,-3.85 22.17,410.74,-3.82 23.77,411.87,-3.72 24.33,412.20,-3.69 24.90,412.52,-3.65 26.65,413.38,-3.55 27.26,413.63,-3.52 28.16,413.99,-3.47 29.05,414.35,-3.42 30.93,415.03,-3.32 31.75,415.30,-3.27 32.99,415.68,-3.20 33.77,415.90,-3.16 35.73,416.28,-3.06 36.17,416.33,-3.03 36.98,416.38,-2.99 37.80,416.41,-2.95 39.79,416.31,-2.85 40.23,416.25,-2.82 41.03,416.10,-2.78 41.76,415.96,-2.74 42.64,415.79,-2.69 44.59,415.34,-2.59 45.26,415.17,-2.55 46.12,414.93,-2.51">
        <lane id="-0_0" index="0" disallow="pedestrian tram rail_urban rail rail_electric rail_fast ship container cable_car subway aircraft wheelchair scooter drone" speed="17.88" length="23.11" width="3.50" shape="23.74,409.71,-3.79 24.75,410.42,-3.72 25.20,410.68,-3.69 25.71,410.97,-3.65 27.39,411.80,-3.55 27.92,412.01,-3.52 28.81,412.37,-3.47 29.67,412.71,-3.42 31.51,413.38,-3.32 32.28,413.63,-3.27 33.49,414.00,-3.20 34.17,414.20,-3.16 36.04,414.56,-3.06 36.31,414.59,-3.03 37.07,414.63,-2.99 37.79,414.66,-2.95 39.68,414.56,-2.85 39.94,414.52,-2.82 40.70,414.38,-2.78 41.43,414.24,-2.74 42.27,414.08,-2.69 44.19,413.64,-2.59 44.81,413.48,-2.55 45.65,413.24,-2.51" type="driving" />
    </edge>
    <edge id="-1" from="18" to="26" priority="1" type="driving" shape="-125.15,-93.92,0.12 -123.64,-92.60,0.17 -122.14,-91.28,0.22 -120.61,-89.95,0.28 -119.09,-88.62,0.33 -117.55,-87.31,0.38 -116.02,-86.00,0.44 -114.50,-84.71,0.49 -112.98,-83.41,0.54 -111.45,-82.11,0.60 -109.93,-80.82,0.65 -108.41,-79.52,0.70 -106.89,-78.22,0.76 -105.37,-76.93,0.81 -103.86,-75.64,0.86 -102.36,-74.35,0.92 -100.85,-73.04,0.97 -99.34,-71.73,1.02 -97.83,-70.42,1.08 -96.31,-69.11,1.13 -94.80,-67.80,1.18 -93.29,-66.49,1.24 -91.78,-65.18,1.29 -90.27,-63.87,1.34 -88.75,-62.56,1.39 -87.24,-61.26,1.44 -85.73,-59.95,1.48 -84.22,-58.64,1.51 -82.71,-57.33,1.54 -81.18,-56.01,1.56 -79.65,-54.70,1.57 -78.13,-53.40,1.58 -76.61,-52.10,1.58 -75.09,-50.80,1.58 -73.58,-49.50,1.57 -72.06,-48.20,1.55 -70.54,-46.90,1.53 -69.02,-45.59,1.52 -67.50,-44.29,1.50 -65.98,-42.99,1.48 -64.46,-41.69,1.46 -62.96,-40.40,1.44 -61.46,-39.10,1.49 -59.95,-37.79,1.54 -58.44,-36.48,1.59 -56.93,-35.17,1.65 -55.42,-33.85,1.70 -53.91,-32.54,1.76 -52.40,-31.23,1.81 -50.89,-29.92,1.87 -49.37,-28.60,1.92 -47.84,-27.28,1.98 -46.31,-25.98,2.03 -44.79,-24.68,2.08 -43.27,-23.38,2.14 -41.75,-22.08,2.19 -40.23,-20.78,2.25 -38.71,-19.48,2.30 -37.19,-18.18,2.35 -35.67,-16.88,2.41 -34.15,-15.58,2.46 -32.63,-14.29,2.52 -31.11,-12.99,2.57 -29.61,-11.70,2.63 -28.11,-10.40,2.68 -26.62,-9.10,2.73 -25.12,-7.79,2.79 -23.62,-6.47,2.84 -22.12,-5.15,2.90 -20.62,-3.83,2.95 -19.12,-2.50,3.00 -17.62,-1.18,3.06 -16.12,0.14,3.11 -14.62,1.46,3.19 -13.11,2.78,3.28 -11.62,4.09,3.37 -10.14,5.41,3.46 -8.64,6.74,3.54 -7.15,8.07,3.62 -5.66,9.40,3.69 -4.16,10.73,3.76 -2.67,12.06,3.83 -1.17,13.39,3.89 0.32,14.72,3.95 1.81,16.05,4.00 3.31,17.38,4.05 4.82,18.71,4.10 6.33,20.05,4.14 7.85,21.38,4.18 9.37,22.70,4.21 10.88,24.01,4.24 12.39,25.32,4.27 13.90,26.63,4.29 15.41,27.94,4.31 16.92,29.25,4.32 18.43,30.56,4.34 19.94,31.88,4.35 21.45,33.19,4.36 22.96,34.50,4.38 24.47,35.81,4.39 25.98,37.12,4.40 27.49,38.43,4.42 29.02,39.75,4.43 30.54,41.06,4.45 32.06,42.37,4.46">
        <lane id="-1_0" index="0" disallow="pedestrian tram rail_urban rail rail_electric rail_fast ship container cable_car subway aircraft wheelchair scooter drone" speed="17.88" length="208.75" width="3.50" shape="132.63,345.47,0.04 135.85,342.63,0.12 137.40,341.28,0.16 138.95,339.92,0.20 140.42,338.66,0.23 141.91,337.37,0.27 149.05,331.23,0.45 152.65,328.13,0.53 154.14,326.83,0.56 154.83,326.24,0.58 157.04,324.29,0.63 159.98,321.71,0.68 162.89,319.14,0.73 165.83,316.55,0.78 168.74,313.98,0.82 171.67,311.38,0.86 175.12,308.33,0.89 176.65,306.98,0.91 189.73,295.49,1.01 191.10,294.28,1.03 192.49,293.06,1.05 193.13,292.49,1.07 194.62,291.18,1.11 195.68,290.23,1.14 207.10,280.03,1.54 208.61,278.68,1.59 209.56,277.84,1.62 216.14,272.05,1.85 217.62,270.76,1.90 219.04,269.51,1.96 220.48,268.24,2.03 221.94,266.96,2.11 226.19,263.23,2.34 227.62,261.96,2.42 229.10,260.64,2.50 230.15,259.70,2.57 242.50,248.54,3.25 244.40,246.84,3.35 245.83,245.54,3.42 247.84,243.71,3.52 249.31,242.38,3.58 250.75,241.06,3.65 252.24,239.71,3.71 253.71,238.38,3.76 255.18,237.04,3.82 256.65,235.71,3.87 258.11,234.38,3.92 259.61,233.02,3.96 260.77,231.98,3.99 262.29,230.61,4.03 263.86,229.21,4.07 265.45,227.80,4.10 266.88,226.54,4.13 268.29,225.30,4.15 269.70,224.06,4.18 271.10,222.83,4.20 272.56,221.55,4.21 284.39,211.20,4.33 286.00,209.79,4.34 289.06,207.16,4.37" type="driving" />
        <lane id="-1_1" index="1" disallow="pedestrian tram rail_urban rail rail_electric rail_fast ship container cable_car subway aircraft wheelchair scooter drone" speed="17.88" length="208.75" width="3.50" shape="134.95,348.09,0.04 138.16,345.26,0.12 139.70,343.92,0.16 141.24,342.57,0.20 142.70,341.31,0.23 144.19,340.02,0.27 151.34,333.88,0.45 154.94,330.78,0.53 156.43,329.48,0.56 157.14,328.87,0.58 159.35,326.92,0.63 162.29,324.34,0.68 165.21,321.76,0.73 168.15,319.17,0.78 171.06,316.60,0.82 173.99,314.00,0.86 177.44,310.95,0.89 178.96,309.61,0.91 192.04,298.12,1.01 193.41,296.91,1.03 194.81,295.68,1.05 195.45,295.11,1.07 196.94,293.80,1.11 198.01,292.84,1.14 209.43,282.64,1.54 210.94,281.29,1.59 211.87,280.47,1.62 218.45,274.68,1.85 219.92,273.39,1.90 221.35,272.14,1.96 222.79,270.87,2.03 224.25,269.59,2.11 228.50,265.86,2.34 229.94,264.57,2.42 231.43,263.26,2.50 232.49,262.30,2.57 244.84,251.14,3.25 246.74,249.44,3.35 248.18,248.13,3.42 250.19,246.30,3.52 251.66,244.97,3.58 253.11,243.65,3.65 254.59,242.30,3.71 256.06,240.97,3.76 257.53,239.63,3.82 259.00,238.30,3.87 260.46,236.97,3.92 261.96,235.62,3.96 263.11,234.58,3.99 264.63,233.21,4.03 266.18,231.82,4.07 267.77,230.42,4.10 269.19,229.17,4.13 270.60,227.93,4.15 272.01,226.69,4.18 273.42,225.46,4.20 274.87,224.18,4.21 286.69,213.84,4.33 288.29,212.44,4.34 291.34,209.82,4.37" type="driving" />
        <lane id="-1_2" index="2" disallow="pedestrian tram rail_urban rail rail_electric rail_fast ship container cable_car subway aircraft wheelchair scooter drone" speed="17.88" length="208.75" width="3.50" shape="137.26,350.72,0.04 140.47,347.89,0.12 142.00,346.55,0.16 143.54,345.21,0.20 144.99,343.96,0.23 146.48,342.68,0.27 153.62,336.53,0.45 157.22,333.43,0.53 158.72,332.13,0.56 159.45,331.50,0.58 161.67,329.54,0.63 164.60,326.97,0.68 167.52,324.38,0.73 170.46,321.79,0.78 173.38,319.22,0.82 176.31,316.62,0.86 179.76,313.57,0.89 181.27,312.24,0.91 194.35,300.75,1.01 195.73,299.53,1.03 197.12,298.31,1.05 197.77,297.73,1.07 199.26,296.42,1.11 200.34,295.45,1.14 211.76,285.25,1.54 213.27,283.91,1.59 214.19,283.10,1.62 220.76,277.31,1.85 222.23,276.02,1.90 223.66,274.77,1.96 225.10,273.50,2.03 226.56,272.22,2.11 230.82,268.48,2.34 232.27,267.19,2.42 233.76,265.87,2.50 234.84,264.90,2.57 247.19,253.74,3.25 249.08,252.03,3.35 250.53,250.72,3.42 252.54,248.89,3.52 254.01,247.56,3.58 255.47,246.24,3.65 256.95,244.89,3.71 258.41,243.56,3.76 259.88,242.22,3.82 261.36,240.89,3.87 262.82,239.56,3.92 264.31,238.21,3.96 265.45,237.18,3.99 266.96,235.82,4.03 268.51,234.44,4.07 270.08,233.05,4.10 271.50,231.80,4.13 272.91,230.56,4.15 274.32,229.32,4.18 275.73,228.08,4.20 277.17,226.81,4.21 288.99,216.47,4.33 290.58,215.09,4.34 293.62,212.48,4.37" type="driving" />
        <lane id="-1_3" index="3" disallow="pedestrian tram rail_urban rail rail_electric rail_fast ship container cable_car subway aircraft wheelchair scooter drone" speed="17.88" length="208.75" width="3.50" shape="139.57,353.35,0.04 142.78,350.52,0.12 144.30,349.19,0.16 145.83,347.86,0.20 147.27,346.61,0.23 148.76,345.33,0.27 155.90,339.19,0.45 159.51,336.08,0.53 161.01,334.77,0.56 161.76,334.13,0.58 163.98,332.17,0.63 166.92,329.59,0.68 169.84,327.01,0.73 172.78,324.42,0.78 175.70,321.84,0.82 178.63,319.24,0.86 182.07,316.20,0.89 183.58,314.87,0.91 196.66,303.38,1.01 198.04,302.16,1.03 199.44,300.93,1.05 200.09,300.35,1.07 201.58,299.04,1.11 202.67,298.06,1.14 214.09,287.86,1.54 215.59,286.52,1.59 216.50,285.72,1.62 223.07,279.94,1.85 224.53,278.66,1.90 225.97,277.40,1.96 227.41,276.13,2.03 228.87,274.85,2.11 233.13,271.11,2.34 234.60,269.80,2.42 236.08,268.48,2.50 237.19,267.50,2.57 249.54,256.34,3.25 251.43,254.63,3.35 252.89,253.31,3.42 254.90,251.48,3.52 256.37,250.15,3.58 257.83,248.82,3.65 259.30,247.48,3.71 260.77,246.15,3.76 262.24,244.81,3.82 263.71,243.48,3.87 265.17,242.15,3.92 266.65,240.81,3.96 267.79,239.78,3.99 269.30,238.42,4.03 270.83,237.06,4.07 272.39,235.68,4.10 273.81,234.43,4.13 275.22,233.19,4.15 276.63,231.95,4.18 278.04,230.71,4.20 279.48,229.45,4.21 291.30,219.10,4.33 292.86,217.74,4.34 295.90,215.14,4.37" type="driving" />
        <lane id="-1_4" index="4" disallow="pedestrian tram rail_urban rail rail_electric rail_fast ship container cable_car subway aircraft wheelchair scooter drone" speed="17.88" length="208.75" width="3.50" shape="141.89,355.97,0.04 145.09,353.15,0.12 146.61,351.83,0.16 148.12,350.50,0.20 149.56,349.26,0.23 151.04,347.98,0.27 158.19,341.84,0.45 161.80,338.73,0.53 163.30,337.42,0.56 164.07,336.76,0.58 166.29,334.80,0.63 169.23,332.22,0.68 172.16,329.63,0.73 175.10,327.04,0.78 178.02,324.46,0.82 180.95,321.86,0.86 184.39,318.82,0.89 185.89,317.50,0.91 198.97,306.01,1.01 200.36,304.78,1.03 201.76,303.55,1.05 202.40,302.98,1.07 203.90,301.66,1.11 205.00,300.67,1.14 216.42,290.47,1.54 217.92,289.14,1.59 218.81,288.35,1.62 225.38,282.57,1.85 226.84,281.29,1.90 228.28,280.03,1.96 229.72,278.76,2.03 231.18,277.48,2.11 235.45,273.73,2.34 236.92,272.42,2.42 238.41,271.10,2.50 239.53,270.09,2.57 251.88,258.93,3.25 253.77,257.23,3.35 255.24,255.90,3.42 257.25,254.07,3.52 258.72,252.74,3.58 260.18,251.41,3.65 261.65,250.07,3.71 263.12,248.74,3.76 264.59,247.40,3.82 266.06,246.07,3.87 267.52,244.74,3.92 269.00,243.41,3.96 270.14,242.38,3.99 271.64,241.03,4.03 273.15,239.67,4.07 274.71,238.30,4.10 276.12,237.06,4.13 277.53,235.82,4.15 278.94,234.58,4.18 280.35,233.34,4.20 281.78,232.08,4.21 293.60,221.74,4.33 295.15,220.39,4.34 298.17,217.79,4.37" type="driving" />
        <lane id="-1_5" index="5" disallow="pedestrian tram rail_urban rail rail_electric rail_fast ship container cable_car subway aircraft wheelchair scooter drone" speed="17.88" length="208.75" width="3.50" shape="144.20,358.60,0.04 147.40,355.78,0.12 148.91,354.46,0.16 150.41,353.15,0.20 151.85,351.91,0.23 153.33,350.63,0.27 160.47,344.49,0.45 164.09,341.38,0.53 165.59,340.07,0.56 166.38,339.39,0.58 168.60,337.43,0.63 171.54,334.85,0.68 174.47,332.26,0.73 177.41,329.67,0.78 180.34,327.08,0.82 183.27,324.48,0.86 186.70,321.45,0.89 188.20,320.13,0.91 201.28,308.64,1.01 202.67,307.41,1.03 204.07,306.18,1.05 204.72,305.60,1.07 206.22,304.28,1.11 207.33,303.28,1.14 218.75,293.08,1.54 220.25,291.75,1.59 221.12,290.98,1.62 227.69,285.20,1.85 229.15,283.92,1.90 230.59,282.66,1.96 232.03,281.39,2.03 233.49,280.11,2.11 237.76,276.36,2.34 239.25,275.03,2.42 240.74,273.71,2.50 241.88,272.69,2.57 254.23,261.53,3.25 256.12,259.83,3.35 257.59,258.49,3.42 259.60,256.66,3.52 261.07,255.33,3.58 262.54,254.00,3.65 264.00,252.66,3.71 265.47,251.33,3.76 266.94,249.99,3.82 268.41,248.66,3.87 269.87,247.33,3.92 271.35,246.00,3.96 272.48,244.98,3.99 273.97,243.64,4.03 275.48,242.29,4.07 277.02,240.93,4.10 278.43,239.69,4.13 279.84,238.45,4.15 281.25,237.21,4.18 282.66,235.97,4.20 284.09,234.71,4.21 295.91,224.37,4.33 297.44,223.04,4.34 300.45,220.45,4.37" type="driving" />
    </edge>
    <edge id="-11" from="9.11" to="18" priority="1" type="driving" shape="78.78,393.72,-1.53 81.07,391.86,-1.45 82.20,390.94,-1.42 83.85,389.59,-1.36 86.77,387.20,-1.26 87.90,386.27,-1.22 89.67,384.80,-1.17 92.46,382.49,-1.08">
        <lane id="-11_0" index="0" disallow="pedestrian tram rail_urban rail rail_electric rail_fast ship container cable_car subway aircraft wheelchair scooter drone" speed="15.65" length="28.46" width="3.50" shape="77.79,392.27,-1.53 79.97,390.50,-1.45 81.09,389.58,-1.42 82.74,388.24,-1.36 85.66,385.85,-1.26 86.78,384.92,-1.22 88.55,383.45,-1.17 99.74,374.19,-0.52" type="driving" />
    </edge>
    <edge id="-12" from="15.begin" to="18" priority="1" type="driving" shape="-273.55,-234.95,-6.55 -272.22,-233.45,-6.50 -270.89,-231.96,-6.46 -269.56,-230.47,-6.41 -268.23,-228.97,-6.37 -266.90,-227.48,-6.32 -265.56,-225.99,-6.28 -264.24,-224.50,-6.24 -262.90,-223.00,-6.19 -261.57,-221.51,-6.14 -260.23,-220.00,-6.07 -258.87,-218.49,-6.00 -257.51,-216.98,-5.93">
        <lane id="-12_0" index="0" disallow="pedestrian tram rail_urban rail rail_electric rail_fast ship container cable_car subway aircraft wheelchair scooter drone" speed="17.88" length="161.37" width="3.50" shape="-11.71,492.31,-6.55 15.14,462.28,-5.35 16.43,460.83,-5.28 17.79,459.30,-5.21 24.62,451.68,-4.84 25.50,450.71,-4.80 26.87,449.20,-4.73 28.27,447.68,-4.66 29.71,446.13,-4.58 31.15,444.61,-4.51 32.27,443.42,-4.46 33.76,441.87,-4.38 41.28,434.21,-4.00 42.57,432.94,-3.94 44.03,431.52,-3.87 45.53,430.06,-3.79 47.08,428.57,-3.72 48.62,427.13,-3.65 50.13,425.72,-3.57 52.11,423.89,-3.48 58.40,418.15,-3.16 61.91,414.98,-2.98 63.46,413.61,-2.91 64.60,412.58,-2.85 68.08,409.52,-2.67 70.69,407.23,-2.53 74.45,403.94,-2.33 76.01,402.59,-2.25 77.58,401.23,-2.16 79.19,399.86,-2.08 83.69,396.02,-1.83 86.69,393.48,-1.66 89.68,390.93,-1.51 92.67,388.39,-1.36 94.21,387.06,-1.29 96.98,384.71,-1.17 99.70,382.38,-1.05 102.43,380.03,-0.94 103.80,378.85,-0.89" type="driving" />
        <lane id="-12_1" index="1" disallow="pedestrian tram rail_urban rail rail_electric rail_fast ship container cable_car subway aircraft wheelchair scooter drone" speed="17.88" length="161.37" width="3.50" shape="-9.10,494.64,-6.55 17.75,464.62,-5.35 19.05,463.16,-5.28 20.40,461.63,-5.21 27.22,454.02,-4.84 28.08,453.07,-4.80 29.45,451.57,-4.73 30.84,450.06,-4.66 32.26,448.52,-4.58 33.69,447.01,-4.51 34.81,445.84,-4.46 36.27,444.31,-4.38 43.77,436.67,-4.00 45.02,435.44,-3.94 46.48,434.02,-3.87 47.96,432.58,-3.79 49.49,431.11,-3.72 51.01,429.68,-3.65 52.51,428.28,-3.57 54.47,426.47,-3.48 60.76,420.74,-3.16 64.25,417.58,-2.98 65.79,416.22,-2.91 66.92,415.20,-2.85 70.39,412.15,-2.67 73.00,409.86,-2.53 76.75,406.58,-2.33 78.30,405.23,-2.25 79.86,403.89,-2.16 81.46,402.52,-2.08 85.96,398.69,-1.83 88.96,396.14,-1.66 91.95,393.59,-1.51 94.94,391.05,-1.36 96.49,389.72,-1.29 99.25,387.37,-1.17 101.98,385.04,-1.05 104.71,382.68,-0.94 106.09,381.50,-0.89" type="driving" />
        <lane id="-12_2" index="2" disallow="pedestrian tram rail_urban rail rail_electric rail_fast ship container cable_car subway aircraft wheelchair scooter drone" speed="17.88" length="161.37" width="3.50" shape="-6.50,496.97,-6.55 20.36,466.95,-5.35 21.66,465.49,-5.28 23.01,463.97,-5.21 29.83,456.36,-4.84 30.67,455.43,-4.80 32.04,453.93,-4.73 33.42,452.43,-4.66 34.82,450.91,-4.58 36.23,449.42,-4.51 37.34,448.25,-4.46 38.78,446.75,-4.38 46.26,439.13,-4.00 47.47,437.94,-3.94 48.92,436.53,-3.87 50.39,435.09,-3.79 51.90,433.65,-3.72 53.40,432.24,-3.65 54.90,430.85,-3.57 56.83,429.06,-3.48 63.11,423.33,-3.16 66.59,420.18,-2.98 68.12,418.83,-2.91 69.24,417.82,-2.85 72.70,414.78,-2.67 75.30,412.49,-2.53 79.05,409.22,-2.33 80.59,407.88,-2.25 82.13,406.55,-2.16 83.73,405.19,-2.08 88.23,401.36,-1.83 91.23,398.81,-1.66 94.22,396.26,-1.51 97.21,393.71,-1.36 98.76,392.39,-1.29 101.52,390.03,-1.17 104.26,387.69,-1.05 107.00,385.33,-0.94 108.37,384.15,-0.89" type="driving" />
        <lane id="-12_3" index="3" disallow="pedestrian tram rail_urban rail rail_electric rail_fast ship container cable_car subway aircraft wheelchair scooter drone" speed="17.88" length="161.37" width="3.50" shape="-3.89,499.31,-6.55 22.97,469.28,-5.35 24.28,467.81,-5.28 25.62,466.30,-5.21 32.43,458.69,-4.84 33.26,457.78,-4.80 34.62,456.29,-4.73 35.99,454.80,-4.66 37.38,453.30,-4.58 38.78,451.82,-4.51 39.87,450.67,-4.46 41.29,449.18,-4.38 48.75,441.59,-4.00 49.92,440.44,-3.94 51.36,439.03,-3.87 52.82,437.61,-3.79 54.31,436.19,-3.72 55.79,434.80,-3.65 57.28,433.41,-3.57 59.20,431.64,-3.48 65.47,425.92,-3.16 68.93,422.79,-2.98 70.45,421.44,-2.91 71.55,420.45,-2.85 75.01,417.41,-2.67 77.61,415.12,-2.53 81.35,411.85,-2.33 82.88,410.53,-2.25 84.41,409.20,-2.16 86.00,407.85,-2.08 90.50,404.02,-1.83 93.50,401.47,-1.66 96.49,398.92,-1.51 99.48,396.38,-1.36 101.03,395.05,-1.29 103.79,392.70,-1.17 106.54,390.35,-1.05 109.28,387.98,-0.94 110.65,386.80,-0.89" type="driving" />
        <lane id="-12_4" index="4" disallow="pedestrian tram rail_urban rail rail_electric rail_fast ship container cable_car subway aircraft wheelchair scooter drone" speed="17.88" length="161.37" width="3.50" shape="-1.28,501.64,-6.55 25.58,471.61,-5.35 26.89,470.14,-5.28 28.23,468.63,-5.21 35.04,461.03,-4.84 35.85,460.14,-4.80 37.20,458.66,-4.73 38.56,457.17,-4.66 39.93,455.69,-4.58 41.32,454.23,-4.51 42.40,453.08,-4.46 43.80,451.62,-4.38 51.24,444.05,-4.00 52.37,442.94,-3.94 53.81,441.54,-3.87 55.25,440.13,-3.79 56.72,438.73,-3.72 58.18,437.35,-3.65 59.66,435.98,-3.57 61.56,434.22,-3.48 67.82,428.51,-3.16 71.27,425.39,-2.98 72.78,424.05,-2.91 73.87,423.07,-2.85 77.32,420.04,-2.67 79.92,417.75,-2.53 83.65,414.49,-2.33 85.17,413.18,-2.25 86.69,411.86,-2.16 88.27,410.52,-2.08 92.77,406.69,-1.83 95.77,404.14,-1.66 98.76,401.59,-1.51 101.75,399.04,-1.36 103.30,397.71,-1.29 106.06,395.36,-1.17 108.82,393.00,-1.05 111.57,390.63,-0.94 112.94,389.45,-0.89" type="driving" />
    </edge>
    <edge id="-14" from="14.0" to="17.14" priority="1" type="driving" shape="46.19,414.91,-2.50 46.27,414.89,-2.50">
        <lane id="-14_0" index="0" disallow="pedestrian tram rail_urban rail rail_electric rail_fast ship container cable_car subway aircraft wheelchair scooter drone" speed="17.88" length="0.10" width="3.50" shape="45.77,413.21,-2.50 45.85,413.19,-2.50" type="driving" />
    </edge>
    <edge id="-17" from="17.14" to="9.17" priority="1" type="driving" shape="46.27,414.89,-2.50 47.03,414.67,-2.48 48.93,414.05,-2.44 49.49,413.83,-2.43 50.29,413.51,-2.41">
        <lane id="-17_0" index="0" disallow="pedestrian tram rail_urban rail rail_electric rail_fast ship container cable_car subway aircraft wheelchair scooter drone" speed="17.88" length="3.93" width="3.50" shape="45.93,413.17,-2.50 46.50,413.00,-2.48 48.36,412.39,-2.44 48.84,412.20,-2.43 49.64,411.89,-2.41" type="driving" />
    </edge>
    <edge id="-2" from="26" to="8.end" priority="1" type="driving" shape="-253.76,-218.06,-5.87 -252.41,-216.59,-5.80 -251.06,-215.11,-5.73 -249.72,-213.63,-5.66 -248.37,-212.15,-5.58 -247.02,-210.68,-5.51 -245.67,-209.20,-5.44 -244.32,-207.72,-5.37 -242.96,-206.23,-5.30 -241.59,-204.74,-5.23 -240.22,-203.27,-5.16 -238.86,-201.81,-5.09 -237.49,-200.34,-5.01 -236.13,-198.88,-4.94 -234.76,-197.41,-4.87 -233.39,-195.94,-4.80 -232.00,-194.47,-4.73 -230.61,-193.00,-4.66 -229.22,-191.54,-4.58 -227.81,-190.09,-4.51 -226.40,-188.64,-4.44 -225.00,-187.20,-4.37 -223.60,-185.77,-4.29 -222.20,-184.34,-4.22 -220.80,-182.92,-4.15 -219.40,-181.49,-4.08 -217.99,-180.06,-4.00 -216.58,-178.62,-3.93 -215.15,-177.19,-3.86 -213.72,-175.76,-3.78 -212.29,-174.33,-3.71 -210.85,-172.92,-3.63 -209.40,-171.50,-3.56 -207.95,-170.10,-3.49 -206.51,-168.71,-3.41 -205.07,-167.32,-3.34 -203.63,-165.94,-3.26 -202.19,-164.55,-3.19 -200.75,-163.16,-3.11 -199.31,-161.77,-3.04 -197.86,-160.37,-2.97 -196.40,-158.98,-2.89 -194.94,-157.59,-2.82 -193.49,-156.22,-2.75 -192.03,-154.84,-2.67 -190.58,-153.47,-2.60 -189.13,-152.09,-2.53 -187.68,-150.72,-2.46 -186.22,-149.34,-2.38 -184.74,-147.95,-2.31 -183.26,-146.57,-2.24 -181.79,-145.21,-2.17 -180.32,-143.85,-2.10 -178.85,-142.50,-2.03 -177.38,-141.14,-1.96 -175.91,-139.78,-1.89 -174.44,-138.42,-1.82 -172.97,-137.07,-1.75 -171.50,-135.71,-1.68 -170.03,-134.35,-1.61 -168.57,-133.00,-1.54 -167.10,-131.64,-1.48 -165.63,-130.28,-1.42 -164.16,-128.92,-1.35 -162.69,-127.57,-1.29 -161.22,-126.21,-1.22 -159.75,-124.85,-1.16 -158.28,-123.49,-1.10">