<?xml version="1.0" encoding="UTF-8"?>
<routes xmlns:xsi="http://www.w3.org/2001/XMLSchema-instance" xsi:noNamespaceSchemaLocation="http://sumo.dlr.de/xsd/routes_file.xsd">
    <vType id="customType" accel="5" decel="5" sigma="0" length="5" maxSpeed="70" lcOvertakeRight="0" lcKeepRight="0" lcSpeedGainRight="0"/>

    <route id="mainline" edges="-12 -1 -2 -3 -16"/>
    <route id="rampMerge" edges="-0 -10 -18 -29 -1 -2 -3 -16"/>

    <flow id="f_0" type="customType" route="mainline" begin="0.00" end="3600.00" probability="0.2" departLane="0"/>
    <flow id="f_1" type="customType" route="mainline" begin="0.00" end="3600.00" probability="0.5" departLane="1"/>
    <flow id="f_2" type="customType" route="mainline" begin="0.00" end="3600.00" probability="0.5" departLane="2"/>
    <flow id="f_3" type="customType" route="mainline" begin="0.00" end="3600.00" probability="0.5" departLane="3"/>
    <flow id="f_4" type="customType" route="mainline" begin="0.00" end="3600.00" probability="0.5" departLane="4"/>

    <vehicle id="ego" type="customType" depart="20.00" color="red" route="rampMerge"/>
</routes>
